<?xml version="1.0" encoding="UTF-8"?>
<routes>

    <!--
        Each v type default values: https://sumo.dlr.de/docs/Vehicle_Type_Parameter_Defaults.html
    -->
    <vType  id="passenger" vClass="passenger" />
    <vType  id="bus" vClass="bus" />
 
    <route id="N2E" edges="N1 E2"/>
    <route id="N2S" edges="N1 S2"/>
    <route id="N2W" edges="N1 W2"/>
    <route id="E2S" edges="E1 S2"/>
    <route id="E2W" edges="E1 W2"/>
    <route id="E2N" edges="E1 N2"/>
    <route id="S2W" edges="S1 W2"/>
    <route id="S2N" edges="S1 N2"/>
    <route id="S2E" edges="S1 E2"/>
    <route id="W2N" edges="W1 N2"/>
    <route id="W2E" edges="W1 E2"/>
    <route id="W2S" edges="W1 S2"/>

    
    <!--
        Below are copied from py4rouFile_ordered.txt    
    -->
    <vehicle depart="0" id="veh0" route="N2E" type="passenger" departLane="1" />
<vehicle depart="0" id="veh8" route="N2W" type="passenger" departLane="1" />
<vehicle depart="0" id="veh12" route="N2S" type="passenger" departLane="1" />
<vehicle depart="0" id="veh49" route="S2E" type="passenger" departLane="2" />
<vehicle depart="0" id="veh56" route="S2W" type="passenger" departLane="1" />
<vehicle depart="0" id="veh61" route="S2N" type="passenger" departLane="2" />
<vehicle depart="0" id="veh96" route="N2S" type="passenger" departLane="1" />
<vehicle depart="1.3783783783783783" id="veh13" route="N2S" type="passenger" departLane="2" />
<vehicle depart="1.457142857142857" id="veh62" route="S2N" type="passenger" departLane="3" />
<vehicle depart="2.7567567567567566" id="veh14" route="N2S" type="passenger" departLane="3" />
<vehicle depart="2.914285714285714" id="veh63" route="S2N" type="passenger" departLane="4" />
<vehicle depart="4.135135135135135" id="veh15" route="N2S" type="passenger" departLane="4" />
<vehicle depart="4.371428571428571" id="veh64" route="S2N" type="passenger" departLane="1" />
<vehicle depart="5.513513513513513" id="veh16" route="N2S" type="passenger" departLane="1" />
<vehicle depart="5.828571428571428" id="veh65" route="S2N" type="passenger" departLane="2" />
<vehicle depart="6.375" id="veh1" route="N2E" type="passenger" departLane="2" />
<vehicle depart="6.891891891891891" id="veh17" route="N2S" type="passenger" departLane="2" />
<vehicle depart="7.285714285714286" id="veh50" route="S2E" type="passenger" departLane="3" />
<vehicle depart="7.285714285714286" id="veh66" route="S2N" type="passenger" departLane="3" />
<vehicle depart="8.27027027027027" id="veh18" route="N2S" type="passenger" departLane="3" />
<vehicle depart="8.742857142857142" id="veh67" route="S2N" type="passenger" departLane="4" />
<vehicle depart="9.64864864864865" id="veh19" route="N2S" type="passenger" departLane="4" />
<vehicle depart="10.2" id="veh57" route="S2W" type="passenger" departLane="2" />
<vehicle depart="10.2" id="veh68" route="S2N" type="passenger" departLane="1" />
<vehicle depart="11.027027027027028" id="veh20" route="N2S" type="passenger" departLane="1" />
<vehicle depart="11.657142857142857" id="veh69" route="S2N" type="passenger" departLane="2" />
<vehicle depart="12.405405405405407" id="veh21" route="N2S" type="passenger" departLane="2" />
<vehicle depart="12.75" id="veh2" route="N2E" type="passenger" departLane="3" />
<vehicle depart="12.75" id="veh9" route="N2W" type="passenger" departLane="2" />
<vehicle depart="13.114285714285714" id="veh70" route="S2N" type="passenger" departLane="3" />
<vehicle depart="13.783783783783786" id="veh22" route="N2S" type="passenger" departLane="3" />
<vehicle depart="14.571428571428571" id="veh51" route="S2E" type="passenger" departLane="4" />
<vehicle depart="14.571428571428571" id="veh71" route="S2N" type="passenger" departLane="4" />
<vehicle depart="15.162162162162165" id="veh23" route="N2S" type="passenger" departLane="4" />
<vehicle depart="16.02857142857143" id="veh72" route="S2N" type="passenger" departLane="1" />
<vehicle depart="16.540540540540544" id="veh24" route="N2S" type="passenger" departLane="1" />
<vehicle depart="17.485714285714284" id="veh73" route="S2N" type="passenger" departLane="2" />
<vehicle depart="17.918918918918923" id="veh25" route="N2S" type="passenger" departLane="2" />
<vehicle depart="18.94285714285714" id="veh74" route="S2N" type="passenger" departLane="3" />
<vehicle depart="19.125" id="veh3" route="N2E" type="passenger" departLane="4" />
<vehicle depart="19.297297297297302" id="veh26" route="N2S" type="passenger" departLane="3" />
<vehicle depart="20.399999999999995" id="veh75" route="S2N" type="passenger" departLane="4" />
<vehicle depart="20.4" id="veh58" route="S2W" type="passenger" departLane="3" />
<vehicle depart="20.67567567567568" id="veh27" route="N2S" type="passenger" departLane="4" />
<vehicle depart="21.85714285714285" id="veh76" route="S2N" type="passenger" departLane="1" />
<vehicle depart="21.857142857142858" id="veh52" route="S2E" type="passenger" departLane="1" />
<vehicle depart="22.05405405405406" id="veh28" route="N2S" type="passenger" departLane="1" />
<vehicle depart="23.314285714285706" id="veh77" route="S2N" type="passenger" departLane="2" />
<vehicle depart="23.43243243243244" id="veh29" route="N2S" type="passenger" departLane="2" />
<vehicle depart="24.77142857142856" id="veh78" route="S2N" type="passenger" departLane="3" />
<vehicle depart="24.810810810810818" id="veh30" route="N2S" type="passenger" departLane="3" />
<vehicle depart="25.5" id="veh4" route="N2E" type="passenger" departLane="1" />
<vehicle depart="25.5" id="veh10" route="N2W" type="passenger" departLane="3" />
<vehicle depart="26.189189189189197" id="veh31" route="N2S" type="passenger" departLane="4" />
<vehicle depart="26.228571428571417" id="veh79" route="S2N" type="passenger" departLane="4" />
<vehicle depart="27.567567567567576" id="veh32" route="N2S" type="passenger" departLane="1" />
<vehicle depart="27.685714285714273" id="veh80" route="S2N" type="passenger" departLane="1" />
<vehicle depart="28.945945945945954" id="veh33" route="N2S" type="passenger" departLane="2" />
<vehicle depart="29.142857142857128" id="veh81" route="S2N" type="passenger" departLane="2" />
<vehicle depart="29.142857142857142" id="veh53" route="S2E" type="passenger" departLane="2" />
<vehicle depart="30.324324324324333" id="veh34" route="N2S" type="passenger" departLane="3" />
<vehicle depart="30.599999999999984" id="veh82" route="S2N" type="passenger" departLane="3" />
<vehicle depart="30.599999999999998" id="veh59" route="S2W" type="passenger" departLane="4" />
<vehicle depart="31.702702702702712" id="veh35" route="N2S" type="passenger" departLane="4" />
<vehicle depart="31.875" id="veh5" route="N2E" type="passenger" departLane="2" />
<vehicle depart="32.05714285714284" id="veh83" route="S2N" type="passenger" departLane="4" />
<vehicle depart="33.08108108108109" id="veh36" route="N2S" type="passenger" departLane="1" />
<vehicle depart="33.5142857142857" id="veh84" route="S2N" type="passenger" departLane="1" />
<vehicle depart="34.45945945945947" id="veh37" route="N2S" type="passenger" departLane="2" />
<vehicle depart="34.971428571428554" id="veh85" route="S2N" type="passenger" departLane="2" />
<vehicle depart="35.837837837837846" id="veh38" route="N2S" type="passenger" departLane="3" />
<vehicle depart="36.42857142857141" id="veh86" route="S2N" type="passenger" departLane="3" />
<vehicle depart="36.42857142857143" id="veh54" route="S2E" type="passenger" departLane="3" />
<vehicle depart="37.216216216216225" id="veh39" route="N2S" type="passenger" departLane="4" />
<vehicle depart="37.885714285714265" id="veh87" route="S2N" type="passenger" departLane="4" />
<vehicle depart="38.25" id="veh6" route="N2E" type="passenger" departLane="3" />
<vehicle depart="38.25" id="veh11" route="N2W" type="passenger" departLane="4" />
<vehicle depart="38.594594594594604" id="veh40" route="N2S" type="passenger" departLane="1" />
<vehicle depart="39.34285714285712" id="veh88" route="S2N" type="passenger" departLane="1" />
<vehicle depart="39.97297297297298" id="veh41" route="N2S" type="passenger" departLane="2" />
<vehicle depart="40.799999999999976" id="veh89" route="S2N" type="passenger" departLane="2" />
<vehicle depart="40.8" id="veh60" route="S2W" type="passenger" departLane="1" />
<vehicle depart="41.35135135135136" id="veh42" route="N2S" type="passenger" departLane="3" />
<vehicle depart="42.25714285714283" id="veh90" route="S2N" type="passenger" departLane="3" />
<vehicle depart="42.72972972972974" id="veh43" route="N2S" type="passenger" departLane="4" />
<vehicle depart="43.71428571428569" id="veh91" route="S2N" type="passenger" departLane="4" />
<vehicle depart="43.714285714285715" id="veh55" route="S2E" type="passenger" departLane="4" />
<vehicle depart="44.10810810810812" id="veh44" route="N2S" type="bus" departLane="1" />
<vehicle depart="44.625" id="veh7" route="N2E" type="passenger" departLane="4" />
<vehicle depart="45.17142857142854" id="veh92" route="S2N" type="bus" departLane="1" />
<vehicle depart="45.4864864864865" id="veh45" route="N2S" type="bus" departLane="2" />
<vehicle depart="46.6285714285714" id="veh93" route="S2N" type="bus" departLane="2" />
<vehicle depart="46.86486486486488" id="veh46" route="N2S" type="bus" departLane="3" />
<vehicle depart="48.08571428571425" id="veh94" route="S2N" type="bus" departLane="3" />
<vehicle depart="48.243243243243256" id="veh47" route="N2S" type="bus" departLane="4" />
<vehicle depart="49.54285714285711" id="veh95" route="S2N" type="bus" departLane="4" />
<vehicle depart="49.621621621621635" id="veh48" route="N2S" type="bus" departLane="1" />
<vehicle depart="52" id="veh97" route="E2N" type="passenger" departLane="2" />
<vehicle depart="52" id="veh102" route="E2S" type="passenger" departLane="3" />
<vehicle depart="52" id="veh111" route="E2W" type="passenger" departLane="4" />
<vehicle depart="52" id="veh125" route="W2N" type="passenger" departLane="2" />
<vehicle depart="52" id="veh128" route="W2S" type="passenger" departLane="1" />
<vehicle depart="52" id="veh129" route="W2E" type="passenger" departLane="2" />
<vehicle depart="52" id="veh137" route="E2W" type="passenger" departLane="2" />
<vehicle depart="52" id="veh138" route="W2S" type="passenger" departLane="3" />
<vehicle depart="58.214285714285715" id="veh112" route="E2W" type="passenger" departLane="1" />
<vehicle depart="61.666666666666664" id="veh103" route="E2S" type="passenger" departLane="4" />
<vehicle depart="62.875" id="veh130" route="W2E" type="passenger" departLane="3" />
<vehicle depart="64.42857142857143" id="veh113" route="E2W" type="passenger" departLane="2" />
<vehicle depart="69.4" id="veh98" route="E2N" type="passenger" departLane="3" />
<vehicle depart="70.64285714285714" id="veh114" route="E2W" type="passenger" departLane="3" />
<vehicle depart="71.33333333333333" id="veh104" route="E2S" type="passenger" departLane="1" />
<vehicle depart="73.75" id="veh131" route="W2E" type="passenger" departLane="4" />
<vehicle depart="76.85714285714285" id="veh115" route="E2W" type="passenger" departLane="4" />
<vehicle depart="81.0" id="veh105" route="E2S" type="passenger" departLane="2" />
<vehicle depart="81.0" id="veh126" route="W2N" type="passenger" departLane="3" />
<vehicle depart="83.07142857142856" id="veh116" route="E2W" type="passenger" departLane="1" />
<vehicle depart="84.625" id="veh132" route="W2E" type="passenger" departLane="1" />
<vehicle depart="86.80000000000001" id="veh99" route="E2N" type="passenger" departLane="4" />
<vehicle depart="89.28571428571426" id="veh117" route="E2W" type="passenger" departLane="2" />
<vehicle depart="90.66666666666667" id="veh106" route="E2S" type="passenger" departLane="3" />
<vehicle depart="95.49999999999997" id="veh118" route="E2W" type="passenger" departLane="3" />
<vehicle depart="95.5" id="veh133" route="W2E" type="passenger" departLane="2" />
<vehicle depart="100.33333333333334" id="veh107" route="E2S" type="passenger" departLane="4" />
<vehicle depart="101.71428571428568" id="veh119" route="E2W" type="passenger" departLane="4" />
<vehicle depart="104.20000000000002" id="veh100" route="E2N" type="passenger" departLane="1" />
<vehicle depart="106.375" id="veh134" route="W2E" type="passenger" departLane="3" />
<vehicle depart="107.92857142857139" id="veh120" route="E2W" type="passenger" departLane="1" />
<vehicle depart="110.0" id="veh127" route="W2N" type="passenger" departLane="4" />
<vehicle depart="110.00000000000001" id="veh108" route="E2S" type="passenger" departLane="1" />
<vehicle depart="114.1428571428571" id="veh121" route="E2W" type="passenger" departLane="2" />
<vehicle depart="117.25" id="veh135" route="W2E" type="passenger" departLane="4" />
<vehicle depart="119.66666666666669" id="veh109" route="E2S" type="passenger" departLane="2" />
<vehicle depart="120.3571428571428" id="veh122" route="E2W" type="passenger" departLane="3" />
<vehicle depart="121.60000000000002" id="veh101" route="E2N" type="passenger" departLane="2" />
<vehicle depart="126.57142857142851" id="veh123" route="E2W" type="passenger" departLane="4" />
<vehicle depart="128.125" id="veh136" route="W2E" type="passenger" departLane="1" />
<vehicle depart="129.33333333333334" id="veh110" route="E2S" type="passenger" departLane="3" />
<vehicle depart="132.78571428571422" id="veh124" route="E2W" type="bus" departLane="1" />
<vehicle depart="139" id="veh139" route="N2E" type="passenger" departLane="4" />
<vehicle depart="139" id="veh149" route="N2W" type="passenger" departLane="2" />
<vehicle depart="139" id="veh160" route="N2S" type="passenger" departLane="1" />
<vehicle depart="139" id="veh190" route="S2E" type="passenger" departLane="3" />
<vehicle depart="139" id="veh197" route="S2W" type="passenger" departLane="2" />
<vehicle depart="139" id="veh200" route="S2N" type="passenger" departLane="1" />
<vehicle depart="139" id="veh214" route="N2W" type="passenger" departLane="3" />
<vehicle depart="139" id="veh215" route="N2S" type="passenger" departLane="4" />
<vehicle depart="139" id="veh217" route="S2N" type="passenger" departLane="2" />
<vehicle depart="140.47222222222223" id="veh161" route="N2S" type="passenger" departLane="2" />
<vehicle depart="141.94444444444446" id="veh162" route="N2S" type="passenger" departLane="3" />
<vehicle depart="142.78571428571428" id="veh201" route="S2N" type="passenger" departLane="2" />
<vehicle depart="143.41666666666669" id="veh163" route="N2S" type="passenger" departLane="4" />
<vehicle depart="144.88888888888889" id="veh140" route="N2E" type="passenger" departLane="1" />
<vehicle depart="144.8888888888889" id="veh164" route="N2S" type="passenger" departLane="1" />
<vehicle depart="146.36111111111114" id="veh165" route="N2S" type="passenger" departLane="2" />
<vehicle depart="146.57142857142856" id="veh202" route="S2N" type="passenger" departLane="3" />
<vehicle depart="146.57142857142858" id="veh191" route="S2E" type="passenger" departLane="4" />
<vehicle depart="147.83333333333334" id="veh150" route="N2W" type="passenger" departLane="3" />
<vehicle depart="147.83333333333337" id="veh166" route="N2S" type="passenger" departLane="3" />
<vehicle depart="149.3055555555556" id="veh167" route="N2S" type="passenger" departLane="4" />
<vehicle depart="150.35714285714283" id="veh203" route="S2N" type="passenger" departLane="4" />
<vehicle depart="150.77777777777777" id="veh141" route="N2E" type="passenger" departLane="2" />
<vehicle depart="150.77777777777783" id="veh168" route="N2S" type="passenger" departLane="1" />
<vehicle depart="152.25000000000006" id="veh169" route="N2S" type="passenger" departLane="2" />
<vehicle depart="153.72222222222229" id="veh170" route="N2S" type="passenger" departLane="3" />
<vehicle depart="154.1428571428571" id="veh204" route="S2N" type="passenger" departLane="1" />
<vehicle depart="154.14285714285717" id="veh192" route="S2E" type="passenger" departLane="1" />
<vehicle depart="155.1944444444445" id="veh171" route="N2S" type="passenger" departLane="4" />
<vehicle depart="156.66666666666666" id="veh142" route="N2E" type="passenger" departLane="3" />
<vehicle depart="156.66666666666666" id="veh198" route="S2W" type="passenger" departLane="3" />
<vehicle depart="156.66666666666669" id="veh151" route="N2W" type="passenger" departLane="4" />
<vehicle depart="156.66666666666674" id="veh172" route="N2S" type="passenger" departLane="1" />
<vehicle depart="157.9285714285714" id="veh205" route="S2N" type="passenger" departLane="2" />
<vehicle depart="158.13888888888897" id="veh173" route="N2S" type="passenger" departLane="2" />
<vehicle depart="159.6111111111112" id="veh174" route="N2S" type="passenger" departLane="3" />
<vehicle depart="161.08333333333343" id="veh175" route="N2S" type="passenger" departLane="4" />
<vehicle depart="161.71428571428567" id="veh206" route="S2N" type="passenger" departLane="3" />
<vehicle depart="161.71428571428575" id="veh193" route="S2E" type="passenger" departLane="2" />
<vehicle depart="162.55555555555554" id="veh143" route="N2E" type="passenger" departLane="4" />
<vehicle depart="162.55555555555566" id="veh176" route="N2S" type="passenger" departLane="1" />
<vehicle depart="164.02777777777789" id="veh177" route="N2S" type="passenger" departLane="2" />
<vehicle depart="165.49999999999994" id="veh207" route="S2N" type="passenger" departLane="4" />
<vehicle depart="165.5" id="veh216" route="N2S" type="passenger" departLane="1" />
<vehicle depart="165.5" id="veh218" route="S2N" type="passenger" departLane="3" />
<vehicle depart="165.50000000000003" id="veh152" route="N2W" type="passenger" departLane="1" />
<vehicle depart="165.5000000000001" id="veh178" route="N2S" type="passenger" departLane="3" />
<vehicle depart="166.97222222222234" id="veh179" route="N2S" type="passenger" departLane="4" />
<vehicle depart="168.44444444444443" id="veh144" route="N2E" type="passenger" departLane="1" />
<vehicle depart="168.44444444444457" id="veh180" route="N2S" type="passenger" departLane="1" />
<vehicle depart="169.28571428571422" id="veh208" route="S2N" type="passenger" departLane="1" />
<vehicle depart="169.28571428571433" id="veh194" route="S2E" type="passenger" departLane="3" />
<vehicle depart="169.9166666666668" id="veh181" route="N2S" type="passenger" departLane="2" />
<vehicle depart="171.38888888888903" id="veh182" route="N2S" type="passenger" departLane="3" />
<vehicle depart="172.86111111111126" id="veh183" route="N2S" type="passenger" departLane="4" />
<vehicle depart="173.0714285714285" id="veh209" route="S2N" type="passenger" departLane="2" />
<vehicle depart="174.33333333333331" id="veh145" route="N2E" type="passenger" departLane="2" />
<vehicle depart="174.33333333333331" id="veh199" route="S2W" type="passenger" departLane="4" />
<vehicle depart="174.33333333333337" id="veh153" route="N2W" type="passenger" departLane="2" />
<vehicle depart="174.33333333333348" id="veh184" route="N2S" type="passenger" departLane="1" />
<vehicle depart="175.8055555555557" id="veh185" route="N2S" type="passenger" departLane="2" />
<vehicle depart="176.85714285714278" id="veh210" route="S2N" type="passenger" departLane="3" />
<vehicle depart="176.85714285714292" id="veh195" route="S2E" type="passenger" departLane="4" />
<vehicle depart="177.27777777777794" id="veh186" route="N2S" type="passenger" departLane="3" />
<vehicle depart="178.75000000000017" id="veh187" route="N2S" type="bus" departLane="4" />
<vehicle depart="180.2222222222222" id="veh146" route="N2E" type="passenger" departLane="3" />
<vehicle depart="180.2222222222224" id="veh188" route="N2S" type="bus" departLane="1" />
<vehicle depart="180.64285714285705" id="veh211" route="S2N" type="passenger" departLane="4" />
<vehicle depart="181.69444444444463" id="veh189" route="N2S" type="bus" departLane="2" />
<vehicle depart="183.1666666666667" id="veh154" route="N2S" type="passenger" departLane="3" />
<vehicle depart="184.42857142857133" id="veh212" route="S2N" type="passenger" departLane="1" />
<vehicle depart="184.4285714285715" id="veh196" route="S2E" type="passenger" departLane="1" />
<vehicle depart="184.63888888888894" id="veh155" route="N2S" type="passenger" departLane="4" />
<vehicle depart="186.1111111111111" id="veh147" route="N2E" type="passenger" departLane="4" />
<vehicle depart="186.11111111111117" id="veh156" route="N2S" type="passenger" departLane="1" />
<vehicle depart="187.5833333333334" id="veh157" route="N2S" type="passenger" departLane="2" />
<vehicle depart="188.2142857142856" id="veh213" route="S2N" type="passenger" departLane="2" />
<vehicle depart="189.05555555555563" id="veh158" route="N2S" type="passenger" departLane="3" />
<vehicle depart="190.52777777777786" id="veh159" route="N2S" type="passenger" departLane="4" />
<vehicle depart="191.99999999999997" id="veh148" route="N2W" type="passenger" departLane="1" />
<vehicle depart="192" id="veh219" route="E2N" type="passenger" departLane="4" />
<vehicle depart="192" id="veh222" route="E2S" type="passenger" departLane="3" />
<vehicle depart="192" id="veh226" route="E2W" type="passenger" departLane="3" />
<vehicle depart="192" id="veh239" route="W2N" type="passenger" departLane="4" />
<vehicle depart="192" id="veh245" route="W2S" type="passenger" departLane="2" />
<vehicle depart="192" id="veh248" route="W2E" type="passenger" departLane="1" />
<vehicle depart="198.69230769230768" id="veh227" route="E2W" type="passenger" departLane="4" />
<vehicle depart="199.25" id="veh249" route="W2E" type="passenger" departLane="2" />
<vehicle depart="205.38461538461536" id="veh228" route="E2W" type="passenger" departLane="1" />
<vehicle depart="206.5" id="veh240" route="W2N" type="passenger" departLane="1" />
<vehicle depart="206.5" id="veh250" route="W2E" type="passenger" departLane="3" />
<vehicle depart="212.07692307692304" id="veh229" route="E2W" type="passenger" departLane="2" />
<vehicle depart="213.75" id="veh223" route="E2S" type="passenger" departLane="4" />
<vehicle depart="213.75" id="veh251" route="W2E" type="passenger" departLane="4" />
<vehicle depart="218.76923076923072" id="veh230" route="E2W" type="passenger" departLane="3" />
<vehicle depart="221.0" id="veh220" route="E2N" type="passenger" departLane="1" />
<vehicle depart="221.0" id="veh241" route="W2N" type="passenger" departLane="2" />
<vehicle depart="221.0" id="veh246" route="W2S" type="passenger" departLane="3" />
<vehicle depart="221.0" id="veh252" route="W2E" type="passenger" departLane="1" />
<vehicle depart="225.4615384615384" id="veh231" route="E2W" type="passenger" departLane="4" />
<vehicle depart="228.25" id="veh253" route="W2E" type="passenger" departLane="2" />
<vehicle depart="232.15384615384608" id="veh232" route="E2W" type="passenger" departLane="1" />
<vehicle depart="235.5" id="veh224" route="E2S" type="passenger" departLane="1" />
<vehicle depart="235.5" id="veh242" route="W2N" type="passenger" departLane="3" />
<vehicle depart="235.5" id="veh254" route="W2E" type="passenger" departLane="3" />
<vehicle depart="238.84615384615375" id="veh233" route="E2W" type="passenger" departLane="2" />
<vehicle depart="242.75" id="veh255" route="W2E" type="passenger" departLane="4" />
<vehicle depart="245.53846153846143" id="veh234" route="E2W" type="passenger" departLane="3" />
<vehicle depart="250.0" id="veh221" route="E2N" type="passenger" departLane="2" />
<vehicle depart="250.0" id="veh243" route="W2N" type="passenger" departLane="4" />
<vehicle depart="250.0" id="veh247" route="W2S" type="passenger" departLane="4" />
<vehicle depart="250.0" id="veh256" route="W2E" type="passenger" departLane="1" />
<vehicle depart="252.2307692307691" id="veh235" route="E2W" type="passenger" departLane="4" />
<vehicle depart="257.25" id="veh225" route="E2S" type="bus" departLane="2" />
<vehicle depart="257.25" id="veh257" route="W2E" type="passenger" departLane="2" />
<vehicle depart="258.9230769230768" id="veh236" route="E2W" type="passenger" departLane="1" />
<vehicle depart="264.5" id="veh244" route="W2N" type="bus" departLane="1" />
<vehicle depart="264.5" id="veh258" route="W2E" type="passenger" departLane="3" />
<vehicle depart="265.61538461538447" id="veh237" route="E2W" type="passenger" departLane="2" />
<vehicle depart="271.75" id="veh259" route="W2E" type="passenger" departLane="4" />
<vehicle depart="272.30769230769215" id="veh238" route="E2W" type="passenger" departLane="3" />
<vehicle depart="279" id="veh260" route="N2E" type="passenger" departLane="1" />
<vehicle depart="279" id="veh264" route="N2W" type="passenger" departLane="1" />
<vehicle depart="279" id="veh268" route="N2S" type="passenger" departLane="1" />
<vehicle depart="279" id="veh299" route="S2E" type="passenger" departLane="4" />
<vehicle depart="279" id="veh302" route="S2W" type="passenger" departLane="3" />
<vehicle depart="279" id="veh304" route="S2N" type="passenger" departLane="1" />
<vehicle depart="279" id="veh334" route="N2E" type="passenger" departLane="3" />
<vehicle depart="279" id="veh335" route="S2E" type="passenger" departLane="4" />
<vehicle depart="279" id="veh336" route="S2N" type="passenger" departLane="1" />
<vehicle depart="280.7096774193548" id="veh269" route="N2S" type="passenger" departLane="2" />
<vehicle depart="280.76666666666665" id="veh305" route="S2N" type="passenger" departLane="2" />
<vehicle depart="282.41935483870964" id="veh270" route="N2S" type="passenger" departLane="3" />
<vehicle depart="282.5333333333333" id="veh306" route="S2N" type="passenger" departLane="3" />
<vehicle depart="284.12903225806446" id="veh271" route="N2S" type="passenger" departLane="4" />
<vehicle depart="284.29999999999995" id="veh307" route="S2N" type="passenger" departLane="4" />
<vehicle depart="285.8387096774193" id="veh272" route="N2S" type="passenger" departLane="1" />
<vehicle depart="286.0666666666666" id="veh308" route="S2N" type="passenger" departLane="1" />
<vehicle depart="287.5483870967741" id="veh273" route="N2S" type="passenger" departLane="2" />
<vehicle depart="287.83333333333326" id="veh309" route="S2N" type="passenger" departLane="2" />
<vehicle depart="289.2580645161289" id="veh274" route="N2S" type="passenger" departLane="3" />
<vehicle depart="289.5999999999999" id="veh310" route="S2N" type="passenger" departLane="3" />
<vehicle depart="290.96774193548373" id="veh275" route="N2S" type="passenger" departLane="4" />
<vehicle depart="291.36666666666656" id="veh311" route="S2N" type="passenger" departLane="4" />
<vehicle depart="292.25" id="veh261" route="N2E" type="passenger" departLane="2" />
<vehicle depart="292.25" id="veh265" route="N2W" type="passenger" departLane="2" />
<vehicle depart="292.67741935483855" id="veh276" route="N2S" type="passenger" departLane="1" />
<vehicle depart="293.1333333333332" id="veh312" route="S2N" type="passenger" departLane="1" />
<vehicle depart="294.38709677419337" id="veh277" route="N2S" type="passenger" departLane="2" />
<vehicle depart="294.89999999999986" id="veh313" route="S2N" type="passenger" departLane="2" />
<vehicle depart="296.0967741935482" id="veh278" route="N2S" type="passenger" departLane="3" />
<vehicle depart="296.6666666666665" id="veh314" route="S2N" type="passenger" departLane="3" />
<vehicle depart="296.6666666666667" id="veh300" route="S2E" type="passenger" departLane="1" />
<vehicle depart="297.806451612903" id="veh279" route="N2S" type="passenger" departLane="4" />
<vehicle depart="298.43333333333317" id="veh315" route="S2N" type="passenger" departLane="4" />
<vehicle depart="299.5161290322578" id="veh280" route="N2S" type="passenger" departLane="1" />
<vehicle depart="300.1999999999998" id="veh316" route="S2N" type="passenger" departLane="1" />
<vehicle depart="301.22580645161264" id="veh281" route="N2S" type="passenger" departLane="2" />
<vehicle depart="301.96666666666647" id="veh317" route="S2N" type="passenger" departLane="2" />
<vehicle depart="302.93548387096746" id="veh282" route="N2S" type="passenger" departLane="3" />
<vehicle depart="303.7333333333331" id="veh318" route="S2N" type="passenger" departLane="3" />
<vehicle depart="304.6451612903223" id="veh283" route="N2S" type="passenger" departLane="4" />
<vehicle depart="305.4999999999998" id="veh319" route="S2N" type="passenger" departLane="4" />
<vehicle depart="305.5" id="veh262" route="N2E" type="passenger" departLane="3" />
<vehicle depart="305.5" id="veh266" route="N2W" type="passenger" departLane="3" />
<vehicle depart="305.5" id="veh303" route="S2W" type="passenger" departLane="4" />
<vehicle depart="306.3548387096771" id="veh284" route="N2S" type="passenger" departLane="1" />
<vehicle depart="307.2666666666664" id="veh320" route="S2N" type="passenger" departLane="1" />
<vehicle depart="308.0645161290319" id="veh285" route="N2S" type="passenger" departLane="2" />
<vehicle depart="309.0333333333331" id="veh321" route="S2N" type="passenger" departLane="2" />
<vehicle depart="309.77419354838673" id="veh286" route="N2S" type="passenger" departLane="3" />
<vehicle depart="310.7999999999997" id="veh322" route="S2N" type="passenger" departLane="3" />
<vehicle depart="311.48387096774155" id="veh287" route="N2S" type="passenger" departLane="4" />
<vehicle depart="312.5666666666664" id="veh323" route="S2N" type="passenger" departLane="4" />
<vehicle depart="313.19354838709637" id="veh288" route="N2S" type="passenger" departLane="1" />
<vehicle depart="314.33333333333303" id="veh324" route="S2N" type="passenger" departLane="1" />
<vehicle depart="314.33333333333337" id="veh301" route="S2E" type="passenger" departLane="2" />
<vehicle depart="314.9032258064512" id="veh289" route="N2S" type="passenger" departLane="2" />
<vehicle depart="316.0999999999997" id="veh325" route="S2N" type="passenger" departLane="2" />
<vehicle depart="316.612903225806" id="veh290" route="N2S" type="passenger" departLane="3" />
<vehicle depart="317.86666666666633" id="veh326" route="S2N" type="passenger" departLane="3" />
<vehicle depart="318.3225806451608" id="veh291" route="N2S" type="passenger" departLane="4" />