<?xml version="1.0" encoding="UTF-8"?>

<!-- generated on 2021-09-10 14:20:43 by Eclipse SUMO netconvert Version 1.9.2
<configuration xmlns:xsi="http://www.w3.org/2001/XMLSchema-instance" xsi:noNamespaceSchemaLocation="http://sumo.dlr.de/xsd/netconvertConfiguration.xsd">

    <input>
        <node-files value="dayuan.nod.xml"/>
        <edge-files value="dayuan.edg.xml"/>
        <connection-files value="dayuan.con.xml"/>
        <tllogic-files value="dayuan.tllogic.xml"/>
        <type-files value="dayuan.typ.xml"/>
    </input>

    <output>
        <output-file value="dayuan.net.xml"/>
    </output>

    <junctions>
        <no-turnarounds value="true"/>
    </junctions>

    <report>
        <verbose value="true"/>
        <aggregate-warnings value="5"/>
    </report>

</configuration>
-->

<net version="1.9" junctionCornerDetail="5" limitTurnSpeed="5.50" xmlns:xsi="http://www.w3.org/2001/XMLSchema-instance" xsi:noNamespaceSchemaLocation="http://sumo.dlr.de/xsd/net_file.xsd">

    <location netOffset="200.00,200.00" convBoundary="0.00,0.00,400.00,400.00" origBoundary="-200.00,-200.00,200.00,200.00" projParameter="!"/>

    <type id="edgetype1" priority="2" numLanes="4" speed="16.67" disallow="pedestrian" sidewalkWidth="2.00"/>

    <edge id=":E_w0" function="walkingarea">
        <lane id=":E_w0_0" index="0" allow="pedestrian" speed="1.00" length="27.60" width="2.00" shape="400.00,212.80 400.00,214.80 400.00,185.20 400.00,187.20"/>
    </edge>
    <edge id=":N_w0" function="walkingarea">
        <lane id=":N_w0_0" index="0" allow="pedestrian" speed="1.00" length="27.60" width="2.00" shape="187.20,400.00 185.20,400.00 214.80,400.00 212.80,400.00"/>
    </edge>
    <edge id=":S_w0" function="walkingarea">
        <lane id=":S_w0_0" index="0" allow="pedestrian" speed="1.00" length="27.60" width="2.00" shape="212.80,0.00 214.80,0.00 185.20,0.00 187.20,0.00"/>
    </edge>
    <edge id=":W_w0" function="walkingarea">
        <lane id=":W_w0_0" index="0" allow="pedestrian" speed="1.00" length="27.60" width="2.00" shape="0.00,187.20 0.00,185.20 0.00,214.80 0.00,212.80"/>
    </edge>
    <edge id=":centernode_0" function="internal">
        <lane id=":centernode_0_0" index="0" disallow="pedestrian" speed="6.51" length="5.22" shape="188.80,216.80 188.45,214.35 187.40,212.60 186.80,212.24"/>
        <lane id=":centernode_0_1" index="1" disallow="pedestrian" speed="7.33" length="7.63" shape="188.80,216.80 188.45,212.95 187.40,210.20 186.80,209.63"/>
    </edge>
    <edge id=":centernode_2" function="internal">
        <lane id=":centernode_2_0" index="0" disallow="pedestrian" speed="16.67" length="33.65" shape="188.80,216.80 188.80,183.20"/>
        <lane id=":centernode_2_1" index="1" disallow="pedestrian" speed="16.67" length="33.65" shape="192.00,216.80 192.00,183.20"/>
        <lane id=":centernode_2_2" index="2" disallow="pedestrian" speed="16.67" length="33.65" shape="195.20,216.80 195.20,183.20"/>
        <lane id=":centernode_2_3" index="3" disallow="pedestrian" speed="16.67" length="33.65" shape="195.20,216.80 195.70,206.80 196.80,200.00 197.90,193.20 198.40,183.20"/>
    </edge>
    <edge id=":centernode_6" function="internal">
        <lane id=":centernode_6_0" index="0" disallow="pedestrian" speed="11.84" length="12.22" shape="198.40,216.80 199.55,207.35 200.78,204.94"/>
        <lane id=":centernode_6_1" index="1" disallow="pedestrian" speed="11.36" length="9.94" shape="198.40,216.80 199.55,208.75 200.48,207.20"/>
    </edge>
    <edge id=":centernode_32" function="internal">
        <lane id=":centernode_32_0" index="0" disallow="pedestrian" speed="6.51" length="3.82" shape="186.80,212.24 185.65,211.55 183.20,211.20"/>
    </edge>
    <edge id=":centernode_33" function="internal">
        <lane id=":centernode_33_0" index="0" disallow="pedestrian" speed="7.33" length="4.09" shape="186.80,209.63 185.65,208.55 183.20,208.00"/>
    </edge>
    <edge id=":centernode_34" function="internal">
        <lane id=":centernode_34_0" index="0" disallow="pedestrian" speed="11.84" length="20.07" shape="200.78,204.94 203.00,200.60 208.75,196.55 216.80,195.20"/>
    </edge>
    <edge id=":centernode_35" function="internal">
        <lane id=":centernode_35_0" index="0" disallow="pedestrian" speed="11.36" length="19.74" shape="200.48,207.20 203.00,203.00 208.75,199.55 216.80,198.40"/>
    </edge>
    <edge id=":centernode_8" function="internal">
        <lane id=":centernode_8_0" index="0" disallow="pedestrian" speed="6.51" length="9.03" shape="216.80,211.20 214.35,211.55 212.60,212.60 211.55,214.35 211.20,216.80"/>
        <lane id=":centernode_8_1" index="1" disallow="pedestrian" speed="7.33" length="11.73" shape="216.80,211.20 212.95,211.55 210.20,212.60 208.55,214.35 208.00,216.80"/>
    </edge>
    <edge id=":centernode_10" function="internal">
        <lane id=":centernode_10_0" index="0" disallow="pedestrian" speed="16.67" length="33.65" shape="216.80,211.20 183.20,211.20"/>
        <lane id=":centernode_10_1" index="1" disallow="pedestrian" speed="16.67" length="33.65" shape="216.80,208.00 183.20,208.00"/>
        <lane id=":centernode_10_2" index="2" disallow="pedestrian" speed="16.67" length="33.65" shape="216.80,204.80 183.20,204.80"/>
        <lane id=":centernode_10_3" index="3" disallow="pedestrian" speed="16.67" length="33.65" shape="216.80,204.80 206.80,204.30 200.00,203.20 193.20,202.10 183.20,201.60"/>
    </edge>
    <edge id=":centernode_14" function="internal">
        <lane id=":centernode_14_0" index="0" disallow="pedestrian" speed="11.84" length="12.22" shape="216.80,201.60 207.35,200.45 204.94,199.22"/>
        <lane id=":centernode_14_1" index="1" disallow="pedestrian" speed="11.36" length="9.94" shape="216.80,201.60 208.75,200.45 207.20,199.52"/>
    </edge>
    <edge id=":centernode_36" function="internal">
        <lane id=":centernode_36_0" index="0" disallow="pedestrian" speed="11.84" length="20.07" shape="204.94,199.22 200.60,197.00 196.55,191.25 195.20,183.20"/>
    </edge>
    <edge id=":centernode_37" function="internal">
        <lane id=":centernode_37_0" index="0" disallow="pedestrian" speed="11.36" length="19.74" shape="207.20,199.52 203.00,197.00 199.55,191.25 198.40,183.20"/>
    </edge>
    <edge id=":centernode_16" function="internal">
        <lane id=":centernode_16_0" index="0" disallow="pedestrian" speed="6.51" length="5.22" shape="211.20,183.20 211.55,185.65 212.60,187.40 213.20,187.76"/>
        <lane id=":centernode_16_1" index="1" disallow="pedestrian" speed="7.33" length="7.63" shape="211.20,183.20 211.55,187.05 212.60,189.80 213.20,190.37"/>
    </edge>
    <edge id=":centernode_18" function="internal">
        <lane id=":centernode_18_0" index="0" disallow="pedestrian" speed="16.67" length="33.65" shape="211.20,183.20 211.20,216.80"/>
        <lane id=":centernode_18_1" index="1" disallow="pedestrian" speed="16.67" length="33.65" shape="208.00,183.20 208.00,216.80"/>
        <lane id=":centernode_18_2" index="2" disallow="pedestrian" speed="16.67" length="33.65" shape="204.80,183.20 204.80,216.80"/>
        <lane id=":centernode_18_3" index="3" disallow="pedestrian" speed="16.67" length="33.65" shape="204.80,183.20 204.30,193.20 203.20,200.00 202.10,206.80 201.60,216.80"/>
    </edge>
    <edge id=":centernode_22" function="internal">
        <lane id=":centernode_22_0" index="0" disallow="pedestrian" speed="11.84" length="12.22" shape="201.60,183.20 200.45,192.65 199.22,195.06"/>
        <lane id=":centernode_22_1" index="1" disallow="pedestrian" speed="11.36" length="9.94" shape="201.60,183.20 200.45,191.25 199.52,192.80"/>
    </edge>
    <edge id=":centernode_38" function="internal">
        <lane id=":centernode_38_0" index="0" disallow="pedestrian" speed="6.51" length="3.82" shape="213.20,187.76 214.35,188.45 216.80,188.80"/>
    </edge>
    <edge id=":centernode_39" function="internal">
        <lane id=":centernode_39_0" index="0" disallow="pedestrian" speed="7.33" length="4.09" shape="213.20,190.37 214.35,191.45 216.80,192.00"/>
    </edge>
    <edge id=":centernode_40" function="internal">
        <lane id=":centernode_40_0" index="0" disallow="pedestrian" speed="11.84" length="20.07" shape="199.22,195.06 197.00,199.40 191.25,203.45 183.20,204.80"/>
    </edge>
    <edge id=":centernode_41" function="internal">
        <lane id=":centernode_41_0" index="0" disallow="pedestrian" speed="11.36" length="19.74" shape="199.52,192.80 197.00,197.00 191.25,200.45 183.20,201.60"/>
    </edge>
    <edge id=":centernode_24" function="internal">
        <lane id=":centernode_24_0" index="0" disallow="pedestrian" speed="6.51" length="9.03" shape="183.20,188.80 185.65,188.45 187.40,187.40 188.45,185.65 188.80,183.20"/>
        <lane id=":centernode_24_1" index="1" disallow="pedestrian" speed="7.33" length="11.73" shape="183.20,188.80 187.05,188.45 189.80,187.40 191.45,185.65 192.00,183.20"/>
    </edge>
    <edge id=":centernode_26" function="internal">
        <lane id=":centernode_26_0" index="0" disallow="pedestrian" speed="16.67" length="33.65" shape="183.20,188.80 216.80,188.80"/>
        <lane id=":centernode_26_1" index="1" disallow="pedestrian" speed="16.67" length="33.65" shape="183.20,192.00 216.80,192.00"/>
        <lane id=":centernode_26_2" index="2" disallow="pedestrian" speed="16.67" length="33.65" shape="183.20,195.20 216.80,195.20"/>
        <lane id=":centernode_26_3" index="3" disallow="pedestrian" speed="16.67" length="33.65" shape="183.20,195.20 193.20,195.70 200.00,196.80 206.80,197.90 216.80,198.40"/>
    </edge>
    <edge id=":centernode_30" function="internal">
        <lane id=":centernode_30_0" index="0" disallow="pedestrian" speed="11.84" length="12.22" shape="183.20,198.40 192.65,199.55 195.06,200.78"/>
        <lane id=":centernode_30_1" index="1" disallow="pedestrian" speed="11.36" length="9.94" shape="183.20,198.40 191.25,199.55 192.80,200.48"/>
    </edge>
    <edge id=":centernode_42" function="internal">
        <lane id=":centernode_42_0" index="0" disallow="pedestrian" speed="11.84" length="20.07" shape="195.06,200.78 199.40,203.00 203.45,208.75 204.80,216.80"/>
    </edge>
    <edge id=":centernode_43" function="internal">
        <lane id=":centernode_43_0" index="0" disallow="pedestrian" speed="11.36" length="19.74" shape="192.80,200.48 197.00,203.00 200.45,208.75 201.60,216.80"/>
    </edge>
    <edge id=":centernode_c0" function="crossing" crossingEdges="N2 N1">
        <lane id=":centernode_c0_0" index="0" allow="pedestrian" speed="1.00" length="25.60" width="6.40" shape="212.80,213.60 187.20,213.60"/>
    </edge>
    <edge id=":centernode_c1" function="crossing" crossingEdges="E2 E1">
        <lane id=":centernode_c1_0" index="0" allow="pedestrian" speed="1.00" length="25.60" width="3.60" shape="215.00,187.20 215.00,212.80"/>
    </edge>
    <edge id=":centernode_c2" function="crossing" crossingEdges="S2 S1">
        <lane id=":centernode_c2_0" index="0" allow="pedestrian" speed="1.00" length="25.60" width="6.40" shape="187.20,186.40 212.80,186.40"/>
    </edge>
    <edge id=":centernode_c3" function="crossing" crossingEdges="W2 W1">
        <lane id=":centernode_c3_0" index="0" allow="pedestrian" speed="1.00" length="25.60" width="3.60" shape="185.00,212.80 185.00,187.20"/>
    </edge>
    <edge id=":centernode_w0" function="walkingarea">
        <lane id=":centernode_w0_0" index="0" allow="pedestrian" speed="1.00" length="3.36" width="6.40" shape="183.20,212.80 183.20,214.80 185.20,216.80 187.20,216.80 187.09,215.58 186.76,214.58 186.20,213.80 185.42,213.24 184.42,212.91"/>
    </edge>
    <edge id=":centernode_w1" function="walkingarea">
        <lane id=":centernode_w1_0" index="0" allow="pedestrian" speed="1.00" length="3.36" width="6.40" shape="212.80,216.80 214.80,216.80 216.80,214.80 216.80,212.80 215.58,212.91 214.58,213.24 213.80,213.80 213.24,214.58 212.91,215.58"/>
    </edge>
    <edge id=":centernode_w2" function="walkingarea">
        <lane id=":centernode_w2_0" index="0" allow="pedestrian" speed="1.00" length="3.36" width="6.40" shape="216.80,187.20 216.80,185.20 214.80,183.20 212.80,183.20 212.91,184.42 213.24,185.42 213.80,186.20 214.58,186.76 215.58,187.09"/>
    </edge>
    <edge id=":centernode_w3" function="walkingarea">
        <lane id=":centernode_w3_0" index="0" allow="pedestrian" speed="1.00" length="3.36" width="6.40" shape="187.20,183.20 185.20,183.20 183.20,185.20 183.20,187.20 184.42,187.09 185.42,186.76 186.20,186.20 186.76,185.42 187.09,184.42"/>
    </edge>

    <edge id="E1" from="E" to="centernode" priority="2" type="edgetype1">
        <lane id="E1_0" index="0" allow="pedestrian" speed="16.67" length="183.20" width="2.00" shape="400.00,213.80 216.80,213.80"/>
        <lane id="E1_1" index="1" disallow="pedestrian" speed="16.67" length="183.20" shape="400.00,211.20 216.80,211.20"/>
        <lane id="E1_2" index="2" disallow="pedestrian" speed="16.67" length="183.20" shape="400.00,208.00 216.80,208.00"/>
        <lane id="E1_3" index="3" disallow="pedestrian" speed="16.67" length="183.20" shape="400.00,204.80 216.80,204.80"/>
        <lane id="E1_4" index="4" disallow="pedestrian" speed="16.67" length="183.20" shape="400.00,201.60 216.80,201.60"/>
    </edge>
    <edge id="E2" from="centernode" to="E" priority="2" type="edgetype1">
        <lane id="E2_0" index="0" allow="pedestrian" speed="16.67" length="183.20" width="2.00" shape="216.80,186.20 400.00,186.20"/>
        <lane id="E2_1" index="1" disallow="pedestrian" speed="16.67" length="183.20" shape="216.80,188.80 400.00,188.80"/>
        <lane id="E2_2" index="2" disallow="pedestrian" speed="16.67" length="183.20" shape="216.80,192.00 400.00,192.00"/>
        <lane id="E2_3" index="3" disallow="pedestrian" speed="16.67" length="183.20" shape="216.80,195.20 400.00,195.20"/>
        <lane id="E2_4" index="4" disallow="pedestrian" speed="16.67" length="183.20" shape="216.80,198.40 400.00,198.40"/>
    </edge>
    <edge id="N1" from="N" to="centernode" priority="2" type="edgetype1">
        <lane id="N1_0" index="0" allow="pedestrian" speed="16.67" length="183.20" width="2.00" shape="186.20,400.00 186.20,216.80"/>
        <lane id="N1_1" index="1" disallow="pedestrian" speed="16.67" length="183.20" shape="188.80,400.00 188.80,216.80"/>
        <lane id="N1_2" index="2" disallow="pedestrian" speed="16.67" length="183.20" shape="192.00,400.00 192.00,216.80"/>
        <lane id="N1_3" index="3" disallow="pedestrian" speed="16.67" length="183.20" shape="195.20,400.00 195.20,216.80"/>
        <lane id="N1_4" index="4" disallow="pedestrian" speed="16.67" length="183.20" shape="198.40,400.00 198.40,216.80"/>
    </edge>
    <edge id="N2" from="centernode" to="N" priority="2" type="edgetype1">
        <lane id="N2_0" index="0" allow="pedestrian" speed="16.67" length="183.20" width="2.00" shape="213.80,216.80 213.80,400.00"/>
        <lane id="N2_1" index="1" disallow="pedestrian" speed="16.67" length="183.20" shape="211.20,216.80 211.20,400.00"/>
        <lane id="N2_2" index="2" disallow="pedestrian" speed="16.67" length="183.20" shape="208.00,216.80 208.00,400.00"/>
        <lane id="N2_3" index="3" disallow="pedestrian" speed="16.67" length="183.20" shape="204.80,216.80 204.80,400.00"/>
        <lane id="N2_4" index="4" disallow="pedestrian" speed="16.67" length="183.20" shape="201.60,216.80 201.60,400.00"/>
    </edge>
    <edge id="S1" from="S" to="centernode" priority="2" type="edgetype1">
        <lane id="S1_0" index="0" allow="pedestrian" speed="16.67" length="183.20" width="2.00" shape="213.80,0.00 213.80,183.20"/>
        <lane id="S1_1" index="1" disallow="pedestrian" speed="16.67" length="183.20" shape="211.20,0.00 211.20,183.20"/>
        <lane id="S1_2" index="2" disallow="pedestrian" speed="16.67" length="183.20" shape="208.00,0.00 208.00,183.20"/>
        <lane id="S1_3" index="3" disallow="pedestrian" speed="16.67" length="183.20" shape="204.80,0.00 204.80,183.20"/>
        <lane id="S1_4" index="4" disallow="pedestrian" speed="16.67" length="183.20" shape="201.60,0.00 201.60,183.20"/>
    </edge>
    <edge id="S2" from="centernode" to="S" priority="2" type="edgetype1">
        <lane id="S2_0" index="0" allow="pedestrian" speed="16.67" length="183.20" width="2.00" shape="186.20,183.20 186.20,0.00"/>
        <lane id="S2_1" index="1" disallow="pedestrian" speed="16.67" length="183.20" shape="188.80,183.20 188.80,0.00"/>
        <lane id="S2_2" index="2" disallow="pedestrian" speed="16.67" length="183.20" shape="192.00,183.20 192.00,0.00"/>
        <lane id="S2_3" index="3" disallow="pedestrian" speed="16.67" length="183.20" shape="195.20,183.20 195.20,0.00"/>
        <lane id="S2_4" index="4" disallow="pedestrian" speed="16.67" length="183.20" shape="198.40,183.20 198.40,0.00"/>
    </edge>
    <edge id="W1" from="W" to="centernode" priority="2" type="edgetype1">
        <lane id="W1_0" index="0" allow="pedestrian" speed="16.67" length="183.20" width="2.00" shape="0.00,186.20 183.20,186.20"/>
        <lane id="W1_1" index="1" disallow="pedestrian" speed="16.67" length="183.20" shape="0.00,188.80 183.20,188.80"/>
        <lane id="W1_2" index="2" disallow="pedestrian" speed="16.67" length="183.20" shape="0.00,192.00 183.20,192.00"/>
        <lane id="W1_3" index="3" disallow="pedestrian" speed="16.67" length="183.20" shape="0.00,195.20 183.20,195.20"/>
        <lane id="W1_4" index="4" disallow="pedestrian" speed="16.67" length="183.20" shape="0.00,198.40 183.20,198.40"/>
    </edge>
    <edge id="W2" from="centernode" to="W" priority="2" type="edgetype1">
        <lane id="W2_0" index="0" allow="pedestrian" speed="16.67" length="183.20" width="2.00" shape="183.20,213.80 0.00,213.80"/>
        <lane id="W2_1" index="1" disallow="pedestrian" speed="16.67" length="183.20" shape="183.20,211.20 0.00,211.20"/>
        <lane id="W2_2" index="2" disallow="pedestrian" speed="16.67" length="183.20" shape="183.20,208.00 0.00,208.00"/>
        <lane id="W2_3" index="3" disallow="pedestrian" speed="16.67" length="183.20" shape="183.20,204.80 0.00,204.80"/>
        <lane id="W2_4" index="4" disallow="pedestrian" speed="16.67" length="183.20" shape="183.20,201.60 0.00,201.60"/>
    </edge>

    <tlLogic id="centernode" type="static" programID="mytllogicprogramid" offset="0">
        <phase duration="84" state="GGGGGGggrrrrrrrrGGGGGGggrrrrrrrrrGrG"/>
        <phase duration="3"  state="yyyyyyyyrrrrrrrryyyyyyyyrrrrrrrrrGrG"/>
        <phase duration="50" state="rrrrrrrrGGGGGGggrrrrrrrrGGGGGGggGrGr"/>
        <phase duration="3"  state="rrrrrrrryyyyyyyyrrrrrrrryyyyyyyyGrGr"/>
    </tlLogic>

    <junction id="E" type="dead_end" x="400.00" y="200.00" incLanes="E2_0 E2_1 E2_2 E2_3 E2_4" intLanes="" shape="400.00,200.00 400.00,185.20 400.00,200.00"/>
    <junction id="N" type="dead_end" x="200.00" y="400.00" incLanes="N2_0 N2_1 N2_2 N2_3 N2_4" intLanes="" shape="200.00,400.00 214.80,400.00 200.00,400.00"/>
    <junction id="S" type="dead_end" x="200.00" y="0.00" incLanes="S2_0 S2_1 S2_2 S2_3 S2_4" intLanes="" shape="200.00,0.00 185.20,0.00 200.00,0.00"/>
    <junction id="W" type="dead_end" x="0.00" y="200.00" incLanes="W2_0 W2_1 W2_2 W2_3 W2_4" intLanes="" shape="0.00,200.00 0.00,214.80 0.00,200.00"/>
    <junction id="centernode" type="traffic_light" x="200.00" y="200.00" incLanes="N1_0 N1_1 N1_2 N1_3 N1_4 E1_0 E1_1 E1_2 E1_3 E1_4 S1_0 S1_1 S1_2 S1_3 S1_4 W1_0 W1_1 W1_2 W1_3 W1_4 :centernode_w1_0 :centernode_w2_0 :centernode_w3_0 :centernode_w0_0" intLanes=":centernode_32_0 :centernode_33_0 :centernode_2_0 :centernode_2_1 :centernode_2_2 :centernode_2_3 :centernode_34_0 :centernode_35_0 :centernode_8_0 :centernode_8_1 :centernode_10_0 :centernode_10_1 :centernode_10_2 :centernode_10_3 :centernode_36_0 :centernode_37_0 :centernode_38_0 :centernode_39_0 :centernode_18_0 :centernode_18_1 :centernode_18_2 :centernode_18_3 :centernode_40_0 :centernode_41_0 :centernode_24_0 :centernode_24_1 :centernode_26_0 :centernode_26_1 :centernode_26_2 :centernode_26_3 :centernode_42_0 :centernode_43_0 :centernode_c0_0 :centernode_c1_0 :centernode_c2_0 :centernode_c3_0" shape="185.20,216.80 214.80,216.80 215.02,215.69 215.30,215.30 215.69,215.02 216.19,214.86 216.80,214.80 216.80,185.20 215.69,184.98 215.30,184.70 215.02,184.31 214.86,183.81 214.80,183.20 185.20,183.20 184.98,184.31 184.70,184.70 184.31,184.98 183.81,185.14 183.20,185.20 183.20,214.80 184.31,215.02 184.70,215.30 184.98,215.69 185.14,216.19">
        <request index="0"  response="100100000000000000000000000000000000" foes="100100000000000000000011110000000000" cont="1"/>
        <request index="1"  response="100100000000000000000000000000000000" foes="100100000000000000000011110000000000" cont="1"/>
        <request index="2"  response="010111000000000000001100000000000000" foes="010111111111110000001111110000000000" cont="0"/>
        <request index="3"  response="010111000000000000001100000000000000" foes="010111111111110000001111110000000000" cont="0"/>
        <request index="4"  response="010111000000000000001100000000000000" foes="010111111111110000001111110000000000" cont="0"/>
        <request index="5"  response="010111000000000000001100000000000000" foes="010111111111110000001111110000000000" cont="0"/>
        <request index="6"  response="001111000000001111001100000000000000" foes="001111111100001111001111110000000000" cont="1"/>
        <request index="7"  response="001111000000001111001100000000000000" foes="001111111100001111001111110000000000" cont="1"/>
        <request index="8"  response="001100000000001111000000000000000000" foes="001100000000001111000000000000000000" cont="0"/>
        <request index="9"  response="001100000000001111000000000000000000" foes="001100000000001111000000000000000000" cont="0"/>
        <request index="10" response="101000000000111111000000000011111111" foes="101011000000111111000000000011111111" cont="0"/>
        <request index="11" response="101000000000111111000000000011111111" foes="101011000000111111000000000011111111" cont="0"/>
        <request index="12" response="101000000000111111000000000011111111" foes="101011000000111111000000000011111111" cont="0"/>
        <request index="13" response="101000000000111111000000000011111111" foes="101011000000111111000000000011111111" cont="0"/>
        <request index="14" response="011000111100111111000000000011111100" foes="011000111100111111000000000011111100" cont="1"/>
        <request index="15" response="011000111100111111000000000011111100" foes="011000111100111111000000000011111100" cont="1"/>
        <request index="16" response="011000000000000000000000000000000000" foes="011000111100000000000000000000000000" cont="1"/>
        <request index="17" response="011000000000000000000000000000000000" foes="011000111100000000000000000000000000" cont="1"/>
        <request index="18" response="010111000000000000001100000000000000" foes="010111111100000000001111111111000000" cont="0"/>
        <request index="19" response="010111000000000000001100000000000000" foes="010111111100000000001111111111000000" cont="0"/>
        <request index="20" response="010111000000000000001100000000000000" foes="010111111100000000001111111111000000" cont="0"/>
        <request index="21" response="010111000000000000001100000000000000" foes="010111111100000000001111111111000000" cont="0"/>
        <request index="22" response="110011000000000000001100000000111100" foes="110011111100000000001111110000111100" cont="1"/>
        <request index="23" response="110011000000000000001100000000111100" foes="110011111100000000001111110000111100" cont="1"/>
        <request index="24" response="110000000000000000000000000000111100" foes="110000000000000000000000000000111100" cont="0"/>
        <request index="25" response="110000000000000000000000000000111100" foes="110000000000000000000000000000111100" cont="0"/>
        <request index="26" response="101000000000111111110000000011111100" foes="101000000000111111111100000011111100" cont="0"/>
        <request index="27" response="101000000000111111110000000011111100" foes="101000000000111111111100000011111100" cont="0"/>
        <request index="28" response="101000000000111111110000000011111100" foes="101000000000111111111100000011111100" cont="0"/>
        <request index="29" response="101000000000111111110000000011111100" foes="101000000000111111111100000011111100" cont="0"/>
        <request index="30" response="100100000000111111000011110011111100" foes="100100000000111111000011110011111100" cont="1"/>
        <request index="31" response="100100000000111111000011110011111100" foes="100100000000111111000011110011111100" cont="1"/>
        <request index="32" response="000000000000000000000000000000000000" foes="000011000000001111000000001111111111" cont="0"/>
        <request index="33" response="000000000000000000000000000000000000" foes="000000111100000000111111111111000000" cont="0"/>
        <request index="34" response="000000000000000000000000000000000000" foes="000000000011111111111100000000111100" cont="0"/>
        <request index="35" response="000000000000000000000000000000000000" foes="000011111111110000000011110000000011" cont="0"/>
    </junction>

    <junction id=":centernode_32_0" type="internal" x="186.80" y="212.24" incLanes=":centernode_0_0" intLanes=":centernode_10_0 :centernode_10_1 :centernode_10_2 :centernode_10_3 :centernode_22_0 :centernode_22_1 :centernode_c0_0 :centernode_c3_0"/>
    <junction id=":centernode_33_0" type="internal" x="186.80" y="209.63" incLanes=":centernode_0_1" intLanes=":centernode_10_0 :centernode_10_1 :centernode_10_2 :centernode_10_3 :centernode_22_0 :centernode_22_1 :centernode_c0_0 :centernode_c3_0"/>
    <junction id=":centernode_34_0" type="internal" x="200.78" y="204.94" incLanes=":centernode_6_0 S1_1 S1_2 S1_3" intLanes=":centernode_10_0 :centernode_10_1 :centernode_10_2 :centernode_10_3 :centernode_14_0 :centernode_14_1 :centernode_16_0 :centernode_16_1 :centernode_18_0 :centernode_18_1 :centernode_18_2 :centernode_18_3 :centernode_26_0 :centernode_26_1 :centernode_26_2 :centernode_26_3 :centernode_30_0 :centernode_30_1 :centernode_c0_0 :centernode_c1_0"/>
    <junction id=":centernode_35_0" type="internal" x="200.48" y="207.20" incLanes=":centernode_6_1 S1_1 S1_2 S1_3" intLanes=":centernode_10_0 :centernode_10_1 :centernode_10_2 :centernode_10_3 :centernode_14_0 :centernode_14_1 :centernode_16_0 :centernode_16_1 :centernode_18_0 :centernode_18_1 :centernode_18_2 :centernode_18_3 :centernode_26_0 :centernode_26_1 :centernode_26_2 :centernode_26_3 :centernode_30_0 :centernode_30_1 :centernode_c0_0 :centernode_c1_0"/>
    <junction id=":centernode_36_0" type="internal" x="204.94" y="199.22" incLanes=":centernode_14_0 W1_1 W1_2 W1_3" intLanes=":centernode_2_0 :centernode_2_1 :centernode_2_2 :centernode_2_3 :centernode_6_0 :centernode_6_1 :centernode_18_0 :centernode_18_1 :centernode_18_2 :centernode_18_3 :centernode_22_0 :centernode_22_1 :centernode_24_0 :centernode_24_1 :centernode_26_0 :centernode_26_1 :centernode_26_2 :centernode_26_3 :centernode_c1_0 :centernode_c2_0"/>
    <junction id=":centernode_37_0" type="internal" x="207.20" y="199.52" incLanes=":centernode_14_1 W1_1 W1_2 W1_3" intLanes=":centernode_2_0 :centernode_2_1 :centernode_2_2 :centernode_2_3 :centernode_6_0 :centernode_6_1 :centernode_18_0 :centernode_18_1 :centernode_18_2 :centernode_18_3 :centernode_22_0 :centernode_22_1 :centernode_24_0 :centernode_24_1 :centernode_26_0 :centernode_26_1 :centernode_26_2 :centernode_26_3 :centernode_c1_0 :centernode_c2_0"/>
    <junction id=":centernode_38_0" type="internal" x="213.20" y="187.76" incLanes=":centernode_16_0" intLanes=":centernode_6_0 :centernode_6_1 :centernode_26_0 :centernode_26_1 :centernode_26_2 :centernode_26_3 :centernode_c1_0 :centernode_c2_0"/>
    <junction id=":centernode_39_0" type="internal" x="213.20" y="190.37" incLanes=":centernode_16_1" intLanes=":centernode_6_0 :centernode_6_1 :centernode_26_0 :centernode_26_1 :centernode_26_2 :centernode_26_3 :centernode_c1_0 :centernode_c2_0"/>
    <junction id=":centernode_40_0" type="internal" x="199.22" y="195.06" incLanes=":centernode_22_0 N1_1 N1_2 N1_3" intLanes=":centernode_0_0 :centernode_0_1 :centernode_2_0 :centernode_2_1 :centernode_2_2 :centernode_2_3 :centernode_10_0 :centernode_10_1 :centernode_10_2 :centernode_10_3 :centernode_14_0 :centernode_14_1 :centernode_26_0 :centernode_26_1 :centernode_26_2 :centernode_26_3 :centernode_30_0 :centernode_30_1 :centernode_c2_0 :centernode_c3_0"/>
    <junction id=":centernode_41_0" type="internal" x="199.52" y="192.80" incLanes=":centernode_22_1 N1_1 N1_2 N1_3" intLanes=":centernode_0_0 :centernode_0_1 :centernode_2_0 :centernode_2_1 :centernode_2_2 :centernode_2_3 :centernode_10_0 :centernode_10_1 :centernode_10_2 :centernode_10_3 :centernode_14_0 :centernode_14_1 :centernode_26_0 :centernode_26_1 :centernode_26_2 :centernode_26_3 :centernode_30_0 :centernode_30_1 :centernode_c2_0 :centernode_c3_0"/>
    <junction id=":centernode_42_0" type="internal" x="195.06" y="200.78" incLanes=":centernode_30_0 E1_1 E1_2 E1_3" intLanes=":centernode_2_0 :centernode_2_1 :centernode_2_2 :centernode_2_3 :centernode_6_0 :centernode_6_1 :centernode_8_0 :centernode_8_1 :centernode_10_0 :centernode_10_1 :centernode_10_2 :centernode_10_3 :centernode_18_0 :centernode_18_1 :centernode_18_2 :centernode_18_3 :centernode_22_0 :centernode_22_1 :centernode_c0_0 :centernode_c3_0"/>
    <junction id=":centernode_43_0" type="internal" x="192.80" y="200.48" incLanes=":centernode_30_1 E1_1 E1_2 E1_3" intLanes=":centernode_2_0 :centernode_2_1 :centernode_2_2 :centernode_2_3 :centernode_6_0 :centernode_6_1 :centernode_8_0 :centernode_8_1 :centernode_10_0 :centernode_10_1 :centernode_10_2 :centernode_10_3 :centernode_18_0 :centernode_18_1 :centernode_18_2 :centernode_18_3 :centernode_22_0 :centernode_22_1 :centernode_c0_0 :centernode_c3_0"/>
