<?xml version="1.0" encoding="UTF-8"?>
<routes>

    <!--
        Each v type default values: https://sumo.dlr.de/docs/Vehicle_Type_Parameter_Defaults.html
    -->
    <vType  id="passenger" vClass="passenger" />
    <vType  id="bus" vClass="bus" />
 
    <route id="N2E" edges="N1 E2"/>
    <route id="N2S" edges="N1 S2"/>
    <route id="N2W" edges="N1 W2"/>
    <route id="E2S" edges="E1 S2"/>
    <route id="E2W" edges="E1 W2"/>
    <route id="E2N" edges="E1 N2"/>
    <route id="S2W" edges="S1 W2"/>
    <route id="S2N" edges="S1 N2"/>
    <route id="S2E" edges="S1 E2"/>
    <route id="W2N" edges="W1 N2"/>
    <route id="W2E" edges="W1 E2"/>
    <route id="W2S" edges="W1 S2"/>

    
    <!--
        Below are copied from py4rouFile_ordered.txt    
    -->
    <vehicle depart="0" id="veh0" route="N2E" type="passenger" departLane="1" />
<vehicle depart="0" id="veh49" route="S2E" type="passenger" departLane="2" />
<vehicle depart="0" id="veh56" route="S2W" type="passenger" departLane="1" />
<vehicle depart="0" id="veh61" route="S2N" type="passenger" departLane="2" />
<vehicle depart="0" id="veh96" route="N2S" type="passenger" departLane="1" />
<vehicle depart="1" id="veh1" route="N2E" type="passenger" departLane="2" />
<vehicle depart="1" id="veh50" route="S2E" type="passenger" departLane="3" />
<vehicle depart="1" id="veh57" route="S2W" type="passenger" departLane="2" />
<vehicle depart="1" id="veh62" route="S2N" type="passenger" departLane="3" />
<vehicle depart="2" id="veh2" route="N2E" type="passenger" departLane="3" />
<vehicle depart="2" id="veh51" route="S2E" type="passenger" departLane="4" />
<vehicle depart="2" id="veh58" route="S2W" type="passenger" departLane="3" />
<vehicle depart="2" id="veh63" route="S2N" type="passenger" departLane="4" />
<vehicle depart="3" id="veh3" route="N2E" type="passenger" departLane="4" />
<vehicle depart="3" id="veh52" route="S2E" type="passenger" departLane="1" />
<vehicle depart="3" id="veh59" route="S2W" type="passenger" departLane="4" />
<vehicle depart="3" id="veh64" route="S2N" type="passenger" departLane="1" />
<vehicle depart="4" id="veh4" route="N2E" type="passenger" departLane="1" />
<vehicle depart="4" id="veh53" route="S2E" type="passenger" departLane="2" />
<vehicle depart="4" id="veh60" route="S2W" type="passenger" departLane="1" />
<vehicle depart="4" id="veh65" route="S2N" type="passenger" departLane="2" />
<vehicle depart="5" id="veh5" route="N2E" type="passenger" departLane="2" />
<vehicle depart="5" id="veh54" route="S2E" type="passenger" departLane="3" />
<vehicle depart="5" id="veh66" route="S2N" type="passenger" departLane="3" />
<vehicle depart="6" id="veh6" route="N2E" type="passenger" departLane="3" />
<vehicle depart="6" id="veh55" route="S2E" type="passenger" departLane="4" />
<vehicle depart="6" id="veh67" route="S2N" type="passenger" departLane="4" />
<vehicle depart="7" id="veh7" route="N2E" type="passenger" departLane="4" />
<vehicle depart="7" id="veh68" route="S2N" type="passenger" departLane="1" />
<vehicle depart="8" id="veh8" route="N2W" type="passenger" departLane="1" />
<vehicle depart="8" id="veh69" route="S2N" type="passenger" departLane="2" />
<vehicle depart="9" id="veh9" route="N2W" type="passenger" departLane="2" />
<vehicle depart="9" id="veh70" route="S2N" type="passenger" departLane="3" />
<vehicle depart="10" id="veh10" route="N2W" type="passenger" departLane="3" />
<vehicle depart="10" id="veh71" route="S2N" type="passenger" departLane="4" />
<vehicle depart="11" id="veh11" route="N2W" type="passenger" departLane="4" />
<vehicle depart="11" id="veh72" route="S2N" type="passenger" departLane="1" />
<vehicle depart="12" id="veh12" route="N2S" type="passenger" departLane="1" />
<vehicle depart="12" id="veh73" route="S2N" type="passenger" departLane="2" />
<vehicle depart="13" id="veh13" route="N2S" type="passenger" departLane="2" />
<vehicle depart="13" id="veh74" route="S2N" type="passenger" departLane="3" />
<vehicle depart="14" id="veh14" route="N2S" type="passenger" departLane="3" />
<vehicle depart="14" id="veh75" route="S2N" type="passenger" departLane="4" />
<vehicle depart="15" id="veh15" route="N2S" type="passenger" departLane="4" />
<vehicle depart="15" id="veh76" route="S2N" type="passenger" departLane="1" />
<vehicle depart="16" id="veh16" route="N2S" type="passenger" departLane="1" />
<vehicle depart="16" id="veh77" route="S2N" type="passenger" departLane="2" />
<vehicle depart="17" id="veh17" route="N2S" type="passenger" departLane="2" />
<vehicle depart="17" id="veh78" route="S2N" type="passenger" departLane="3" />
<vehicle depart="18" id="veh18" route="N2S" type="passenger" departLane="3" />
<vehicle depart="18" id="veh79" route="S2N" type="passenger" departLane="4" />
<vehicle depart="19" id="veh19" route="N2S" type="passenger" departLane="4" />
<vehicle depart="19" id="veh80" route="S2N" type="passenger" departLane="1" />
<vehicle depart="20" id="veh20" route="N2S" type="passenger" departLane="1" />
<vehicle depart="20" id="veh81" route="S2N" type="passenger" departLane="2" />
<vehicle depart="21" id="veh21" route="N2S" type="passenger" departLane="2" />
<vehicle depart="21" id="veh82" route="S2N" type="passenger" departLane="3" />
<vehicle depart="22" id="veh22" route="N2S" type="passenger" departLane="3" />
<vehicle depart="22" id="veh83" route="S2N" type="passenger" departLane="4" />
<vehicle depart="23" id="veh23" route="N2S" type="passenger" departLane="4" />
<vehicle depart="23" id="veh84" route="S2N" type="passenger" departLane="1" />
<vehicle depart="24" id="veh24" route="N2S" type="passenger" departLane="1" />
<vehicle depart="24" id="veh85" route="S2N" type="passenger" departLane="2" />
<vehicle depart="25" id="veh25" route="N2S" type="passenger" departLane="2" />
<vehicle depart="25" id="veh86" route="S2N" type="passenger" departLane="3" />
<vehicle depart="26" id="veh26" route="N2S" type="passenger" departLane="3" />
<vehicle depart="26" id="veh87" route="S2N" type="passenger" departLane="4" />
<vehicle depart="27" id="veh27" route="N2S" type="passenger" departLane="4" />
<vehicle depart="27" id="veh88" route="S2N" type="passenger" departLane="1" />
<vehicle depart="28" id="veh28" route="N2S" type="passenger" departLane="1" />
<vehicle depart="28" id="veh89" route="S2N" type="passenger" departLane="2" />
<vehicle depart="29" id="veh29" route="N2S" type="passenger" departLane="2" />
<vehicle depart="29" id="veh90" route="S2N" type="passenger" departLane="3" />
<vehicle depart="30" id="veh30" route="N2S" type="passenger" departLane="3" />
<vehicle depart="30" id="veh91" route="S2N" type="passenger" departLane="4" />
<vehicle depart="31" id="veh31" route="N2S" type="passenger" departLane="4" />
<vehicle depart="31" id="veh92" route="S2N" type="bus" departLane="1" />
<vehicle depart="32" id="veh32" route="N2S" type="passenger" departLane="1" />
<vehicle depart="32" id="veh93" route="S2N" type="bus" departLane="2" />
<vehicle depart="33" id="veh33" route="N2S" type="passenger" departLane="2" />
<vehicle depart="33" id="veh94" route="S2N" type="bus" departLane="3" />
<vehicle depart="34" id="veh34" route="N2S" type="passenger" departLane="3" />
<vehicle depart="34" id="veh95" route="S2N" type="bus" departLane="4" />
<vehicle depart="35" id="veh35" route="N2S" type="passenger" departLane="4" />
<vehicle depart="36" id="veh36" route="N2S" type="passenger" departLane="1" />
<vehicle depart="37" id="veh37" route="N2S" type="passenger" departLane="2" />
<vehicle depart="38" id="veh38" route="N2S" type="passenger" departLane="3" />
<vehicle depart="39" id="veh39" route="N2S" type="passenger" departLane="4" />
<vehicle depart="40" id="veh40" route="N2S" type="passenger" departLane="1" />
<vehicle depart="41" id="veh41" route="N2S" type="passenger" departLane="2" />
<vehicle depart="42" id="veh42" route="N2S" type="passenger" departLane="3" />
<vehicle depart="43" id="veh43" route="N2S" type="passenger" departLane="4" />
<vehicle depart="44" id="veh44" route="N2S" type="bus" departLane="1" />
<vehicle depart="45" id="veh45" route="N2S" type="bus" departLane="2" />
<vehicle depart="46" id="veh46" route="N2S" type="bus" departLane="3" />
<vehicle depart="47" id="veh47" route="N2S" type="bus" departLane="4" />
<vehicle depart="48" id="veh48" route="N2S" type="bus" departLane="1" />
<vehicle depart="52" id="veh97" route="E2N" type="passenger" departLane="2" />
<vehicle depart="52" id="veh125" route="W2N" type="passenger" departLane="2" />
<vehicle depart="52" id="veh128" route="W2S" type="passenger" departLane="1" />
<vehicle depart="52" id="veh129" route="W2E" type="passenger" departLane="2" />
<vehicle depart="52" id="veh137" route="E2W" type="passenger" departLane="2" />
<vehicle depart="52" id="veh138" route="W2S" type="passenger" departLane="3" />
<vehicle depart="53" id="veh98" route="E2N" type="passenger" departLane="3" />
<vehicle depart="53" id="veh126" route="W2N" type="passenger" departLane="3" />
<vehicle depart="53" id="veh130" route="W2E" type="passenger" departLane="3" />
<vehicle depart="54" id="veh99" route="E2N" type="passenger" departLane="4" />
<vehicle depart="54" id="veh127" route="W2N" type="passenger" departLane="4" />
<vehicle depart="54" id="veh131" route="W2E" type="passenger" departLane="4" />
<vehicle depart="55" id="veh100" route="E2N" type="passenger" departLane="1" />
<vehicle depart="55" id="veh132" route="W2E" type="passenger" departLane="1" />
<vehicle depart="56" id="veh101" route="E2N" type="passenger" departLane="2" />
<vehicle depart="56" id="veh133" route="W2E" type="passenger" departLane="2" />
<vehicle depart="57" id="veh102" route="E2S" type="passenger" departLane="3" />
<vehicle depart="57" id="veh134" route="W2E" type="passenger" departLane="3" />
<vehicle depart="58" id="veh103" route="E2S" type="passenger" departLane="4" />
<vehicle depart="58" id="veh135" route="W2E" type="passenger" departLane="4" />
<vehicle depart="59" id="veh104" route="E2S" type="passenger" departLane="1" />
<vehicle depart="59" id="veh136" route="W2E" type="passenger" departLane="1" />
<vehicle depart="60" id="veh105" route="E2S" type="passenger" departLane="2" />
<vehicle depart="61" id="veh106" route="E2S" type="passenger" departLane="3" />
<vehicle depart="62" id="veh107" route="E2S" type="passenger" departLane="4" />
<vehicle depart="63" id="veh108" route="E2S" type="passenger" departLane="1" />
<vehicle depart="64" id="veh109" route="E2S" type="passenger" departLane="2" />
<vehicle depart="65" id="veh110" route="E2S" type="passenger" departLane="3" />
<vehicle depart="66" id="veh111" route="E2W" type="passenger" departLane="4" />
<vehicle depart="67" id="veh112" route="E2W" type="passenger" departLane="1" />
<vehicle depart="68" id="veh113" route="E2W" type="passenger" departLane="2" />
<vehicle depart="69" id="veh114" route="E2W" type="passenger" departLane="3" />
<vehicle depart="70" id="veh115" route="E2W" type="passenger" departLane="4" />
<vehicle depart="71" id="veh116" route="E2W" type="passenger" departLane="1" />
<vehicle depart="72" id="veh117" route="E2W" type="passenger" departLane="2" />
<vehicle depart="73" id="veh118" route="E2W" type="passenger" departLane="3" />
<vehicle depart="74" id="veh119" route="E2W" type="passenger" departLane="4" />
<vehicle depart="75" id="veh120" route="E2W" type="passenger" departLane="1" />
<vehicle depart="76" id="veh121" route="E2W" type="passenger" departLane="2" />
<vehicle depart="77" id="veh122" route="E2W" type="passenger" departLane="3" />
<vehicle depart="78" id="veh123" route="E2W" type="passenger" departLane="4" />
<vehicle depart="79" id="veh124" route="E2W" type="bus" departLane="1" />
<vehicle depart="139" id="veh139" route="N2E" type="passenger" departLane="4" />
<vehicle depart="139" id="veh190" route="S2E" type="passenger" departLane="3" />
<vehicle depart="139" id="veh197" route="S2W" type="passenger" departLane="2" />
<vehicle depart="139" id="veh200" route="S2N" type="passenger" departLane="1" />
<vehicle depart="139" id="veh214" route="N2W" type="passenger" departLane="3" />
<vehicle depart="139" id="veh217" route="S2N" type="passenger" departLane="2" />
<vehicle depart="140" id="veh140" route="N2E" type="passenger" departLane="1" />
<vehicle depart="140" id="veh191" route="S2E" type="passenger" departLane="4" />
<vehicle depart="140" id="veh198" route="S2W" type="passenger" departLane="3" />
<vehicle depart="140" id="veh201" route="S2N" type="passenger" departLane="2" />
<vehicle depart="140" id="veh215" route="N2S" type="passenger" departLane="4" />
<vehicle depart="140" id="veh218" route="S2N" type="passenger" departLane="3" />
<vehicle depart="141" id="veh141" route="N2E" type="passenger" departLane="2" />
<vehicle depart="141" id="veh192" route="S2E" type="passenger" departLane="1" />
<vehicle depart="141" id="veh199" route="S2W" type="passenger" departLane="4" />
<vehicle depart="141" id="veh202" route="S2N" type="passenger" departLane="3" />
<vehicle depart="141" id="veh216" route="N2S" type="passenger" departLane="1" />
<vehicle depart="142" id="veh142" route="N2E" type="passenger" departLane="3" />
<vehicle depart="142" id="veh193" route="S2E" type="passenger" departLane="2" />
<vehicle depart="142" id="veh203" route="S2N" type="passenger" departLane="4" />
<vehicle depart="143" id="veh143" route="N2E" type="passenger" departLane="4" />
<vehicle depart="143" id="veh194" route="S2E" type="passenger" departLane="3" />
<vehicle depart="143" id="veh204" route="S2N" type="passenger" departLane="1" />
<vehicle depart="144" id="veh144" route="N2E" type="passenger" departLane="1" />
<vehicle depart="144" id="veh195" route="S2E" type="passenger" departLane="4" />
<vehicle depart="144" id="veh205" route="S2N" type="passenger" departLane="2" />
<vehicle depart="145" id="veh145" route="N2E" type="passenger" departLane="2" />
<vehicle depart="145" id="veh196" route="S2E" type="passenger" departLane="1" />
<vehicle depart="145" id="veh206" route="S2N" type="passenger" departLane="3" />
<vehicle depart="146" id="veh146" route="N2E" type="passenger" departLane="3" />
<vehicle depart="146" id="veh207" route="S2N" type="passenger" departLane="4" />
<vehicle depart="147" id="veh147" route="N2E" type="passenger" departLane="4" />
<vehicle depart="147" id="veh208" route="S2N" type="passenger" departLane="1" />
<vehicle depart="148" id="veh148" route="N2W" type="passenger" departLane="1" />
<vehicle depart="148" id="veh209" route="S2N" type="passenger" departLane="2" />
<vehicle depart="149" id="veh149" route="N2W" type="passenger" departLane="2" />
<vehicle depart="149" id="veh210" route="S2N" type="passenger" departLane="3" />
<vehicle depart="150" id="veh150" route="N2W" type="passenger" departLane="3" />
<vehicle depart="150" id="veh211" route="S2N" type="passenger" departLane="4" />
<vehicle depart="151" id="veh151" route="N2W" type="passenger" departLane="4" />
<vehicle depart="151" id="veh212" route="S2N" type="passenger" departLane="1" />
<vehicle depart="152" id="veh152" route="N2W" type="passenger" departLane="1" />
<vehicle depart="152" id="veh213" route="S2N" type="passenger" departLane="2" />
<vehicle depart="153" id="veh153" route="N2W" type="passenger" departLane="2" />
<vehicle depart="154" id="veh154" route="N2S" type="passenger" departLane="3" />
<vehicle depart="155" id="veh155" route="N2S" type="passenger" departLane="4" />
<vehicle depart="156" id="veh156" route="N2S" type="passenger" departLane="1" />
<vehicle depart="157" id="veh157" route="N2S" type="passenger" departLane="2" />
<vehicle depart="158" id="veh158" route="N2S" type="passenger" departLane="3" />
<vehicle depart="159" id="veh159" route="N2S" type="passenger" departLane="4" />
<vehicle depart="160" id="veh160" route="N2S" type="passenger" departLane="1" />
<vehicle depart="161" id="veh161" route="N2S" type="passenger" departLane="2" />
<vehicle depart="162" id="veh162" route="N2S" type="passenger" departLane="3" />
<vehicle depart="163" id="veh163" route="N2S" type="passenger" departLane="4" />
<vehicle depart="164" id="veh164" route="N2S" type="passenger" departLane="1" />
<vehicle depart="165" id="veh165" route="N2S" type="passenger" departLane="2" />
<vehicle depart="166" id="veh166" route="N2S" type="passenger" departLane="3" />
<vehicle depart="167" id="veh167" route="N2S" type="passenger" departLane="4" />
<vehicle depart="168" id="veh168" route="N2S" type="passenger" departLane="1" />
<vehicle depart="169" id="veh169" route="N2S" type="passenger" departLane="2" />
<vehicle depart="170" id="veh170" route="N2S" type="passenger" departLane="3" />
<vehicle depart="171" id="veh171" route="N2S" type="passenger" departLane="4" />
<vehicle depart="172" id="veh172" route="N2S" type="passenger" departLane="1" />
<vehicle depart="173" id="veh173" route="N2S" type="passenger" departLane="2" />
<vehicle depart="174" id="veh174" route="N2S" type="passenger" departLane="3" />
<vehicle depart="175" id="veh175" route="N2S" type="passenger" departLane="4" />
<vehicle depart="176" id="veh176" route="N2S" type="passenger" departLane="1" />
<vehicle depart="177" id="veh177" route="N2S" type="passenger" departLane="2" />
<vehicle depart="178" id="veh178" route="N2S" type="passenger" departLane="3" />
<vehicle depart="179" id="veh179" route="N2S" type="passenger" departLane="4" />
<vehicle depart="180" id="veh180" route="N2S" type="passenger" departLane="1" />
<vehicle depart="181" id="veh181" route="N2S" type="passenger" departLane="2" />
<vehicle depart="182" id="veh182" route="N2S" type="passenger" departLane="3" />
<vehicle depart="183" id="veh183" route="N2S" type="passenger" departLane="4" />
<vehicle depart="184" id="veh184" route="N2S" type="passenger" departLane="1" />
<vehicle depart="185" id="veh185" route="N2S" type="passenger" departLane="2" />
<vehicle depart="186" id="veh186" route="N2S" type="passenger" departLane="3" />
<vehicle depart="187" id="veh187" route="N2S" type="bus" departLane="4" />
<vehicle depart="188" id="veh188" route="N2S" type="bus" departLane="1" />
<vehicle depart="189" id="veh189" route="N2S" type="bus" departLane="2" />
<vehicle depart="192" id="veh219" route="E2N" type="passenger" departLane="4" />
<vehicle depart="192" id="veh239" route="W2N" type="passenger" departLane="4" />
<vehicle depart="192" id="veh245" route="W2S" type="passenger" departLane="2" />
<vehicle depart="192" id="veh248" route="W2E" type="passenger" departLane="1" />
<vehicle depart="193" id="veh220" route="E2N" type="passenger" departLane="1" />
<vehicle depart="193" id="veh240" route="W2N" type="passenger" departLane="1" />
<vehicle depart="193" id="veh246" route="W2S" type="passenger" departLane="3" />
<vehicle depart="193" id="veh249" route="W2E" type="passenger" departLane="2" />
<vehicle depart="194" id="veh221" route="E2N" type="passenger" departLane="2" />
<vehicle depart="194" id="veh241" route="W2N" type="passenger" departLane="2" />
<vehicle depart="194" id="veh247" route="W2S" type="passenger" departLane="4" />
<vehicle depart="194" id="veh250" route="W2E" type="passenger" departLane="3" />
<vehicle depart="195" id="veh222" route="E2S" type="passenger" departLane="3" />
<vehicle depart="195" id="veh242" route="W2N" type="passenger" departLane="3" />
<vehicle depart="195" id="veh251" route="W2E" type="passenger" departLane="4" />
<vehicle depart="196" id="veh223" route="E2S" type="passenger" departLane="4" />
<vehicle depart="196" id="veh243" route="W2N" type="passenger" departLane="4" />
<vehicle depart="196" id="veh252" route="W2E" type="passenger" departLane="1" />
<vehicle depart="197" id="veh224" route="E2S" type="passenger" departLane="1" />
<vehicle depart="197" id="veh244" route="W2N" type="bus" departLane="1" />
<vehicle depart="197" id="veh253" route="W2E" type="passenger" departLane="2" />
<vehicle depart="198" id="veh225" route="E2S" type="bus" departLane="2" />
<vehicle depart="198" id="veh254" route="W2E" type="passenger" departLane="3" />
<vehicle depart="199" id="veh226" route="E2W" type="passenger" departLane="3" />
<vehicle depart="199" id="veh255" route="W2E" type="passenger" departLane="4" />
<vehicle depart="200" id="veh227" route="E2W" type="passenger" departLane="4" />
<vehicle depart="200" id="veh256" route="W2E" type="passenger" departLane="1" />
<vehicle depart="201" id="veh228" route="E2W" type="passenger" departLane="1" />
<vehicle depart="201" id="veh257" route="W2E" type="passenger" departLane="2" />
<vehicle depart="202" id="veh229" route="E2W" type="passenger" departLane="2" />
<vehicle depart="202" id="veh258" route="W2E" type="passenger" departLane="3" />
<vehicle depart="203" id="veh230" route="E2W" type="passenger" departLane="3" />
<vehicle depart="203" id="veh259" route="W2E" type="passenger" departLane="4" />
<vehicle depart="204" id="veh231" route="E2W" type="passenger" departLane="4" />
<vehicle depart="205" id="veh232" route="E2W" type="passenger" departLane="1" />
<vehicle depart="206" id="veh233" route="E2W" type="passenger" departLane="2" />
<vehicle depart="207" id="veh234" route="E2W" type="passenger" departLane="3" />
<vehicle depart="208" id="veh235" route="E2W" type="passenger" departLane="4" />
<vehicle depart="209" id="veh236" route="E2W" type="passenger" departLane="1" />
<vehicle depart="210" id="veh237" route="E2W" type="passenger" departLane="2" />
<vehicle depart="211" id="veh238" route="E2W" type="passenger" departLane="3" />
<vehicle depart="279" id="veh260" route="N2E" type="passenger" departLane="1" />
<vehicle depart="279" id="veh299" route="S2E" type="passenger" departLane="4" />
<vehicle depart="279" id="veh302" route="S2W" type="passenger" departLane="3" />
<vehicle depart="279" id="veh304" route="S2N" type="passenger" departLane="1" />
<vehicle depart="279" id="veh334" route="N2E" type="passenger" departLane="3" />
<vehicle depart="279" id="veh335" route="S2E" type="passenger" departLane="4" />
<vehicle depart="279" id="veh336" route="S2N" type="passenger" departLane="1" />
<vehicle depart="280" id="veh261" route="N2E" type="passenger" departLane="2" />
<vehicle depart="280" id="veh300" route="S2E" type="passenger" departLane="1" />
<vehicle depart="280" id="veh303" route="S2W" type="passenger" departLane="4" />
<vehicle depart="280" id="veh305" route="S2N" type="passenger" departLane="2" />
<vehicle depart="281" id="veh262" route="N2E" type="passenger" departLane="3" />
<vehicle depart="281" id="veh301" route="S2E" type="passenger" departLane="2" />
<vehicle depart="281" id="veh306" route="S2N" type="passenger" departLane="3" />
<vehicle depart="282" id="veh263" route="N2E" type="bus" departLane="4" />
<vehicle depart="282" id="veh307" route="S2N" type="passenger" departLane="4" />
<vehicle depart="283" id="veh264" route="N2W" type="passenger" departLane="1" />
<vehicle depart="283" id="veh308" route="S2N" type="passenger" departLane="1" />
<vehicle depart="284" id="veh265" route="N2W" type="passenger" departLane="2" />
<vehicle depart="284" id="veh309" route="S2N" type="passenger" departLane="2" />
<vehicle depart="285" id="veh266" route="N2W" type="passenger" departLane="3" />
<vehicle depart="285" id="veh310" route="S2N" type="passenger" departLane="3" />
<vehicle depart="286" id="veh267" route="N2W" type="passenger" departLane="4" />
<vehicle depart="286" id="veh311" route="S2N" type="passenger" departLane="4" />
<vehicle depart="287" id="veh268" route="N2S" type="passenger" departLane="1" />
<vehicle depart="287" id="veh312" route="S2N" type="passenger" departLane="1" />
<vehicle depart="288" id="veh269" route="N2S" type="passenger" departLane="2" />
<vehicle depart="288" id="veh313" route="S2N" type="passenger" departLane="2" />
<vehicle depart="289" id="veh270" route="N2S" type="passenger" departLane="3" />
<vehicle depart="289" id="veh314" route="S2N" type="passenger" departLane="3" />
<vehicle depart="290" id="veh271" route="N2S" type="passenger" departLane="4" />
<vehicle depart="290" id="veh315" route="S2N" type="passenger" departLane="4" />
<vehicle depart="291" id="veh272" route="N2S" type="passenger" departLane="1" />
<vehicle depart="291" id="veh316" route="S2N" type="passenger" departLane="1" />
<vehicle depart="292" id="veh273" route="N2S" type="passenger" departLane="2" />
<vehicle depart="292" id="veh317" route="S2N" type="passenger" departLane="2" />
<vehicle depart="293" id="veh274" route="N2S" type="passenger" departLane="3" />
<vehicle depart="293" id="veh318" route="S2N" type="passenger" departLane="3" />
<vehicle depart="294" id="veh275" route="N2S" type="passenger" departLane="4" />
<vehicle depart="294" id="veh319" route="S2N" type="passenger" departLane="4" />
<vehicle depart="295" id="veh276" route="N2S" type="passenger" departLane="1" />
<vehicle depart="295" id="veh320" route="S2N" type="passenger" departLane="1" />
<vehicle depart="296" id="veh277" route="N2S" type="passenger" departLane="2" />
<vehicle depart="296" id="veh321" route="S2N" type="passenger" departLane="2" />
<vehicle depart="297" id="veh278" route="N2S" type="passenger" departLane="3" />
<vehicle depart="297" id="veh322" route="S2N" type="passenger" departLane="3" />
<vehicle depart="298" id="veh279" route="N2S" type="passenger" departLane="4" />
<vehicle depart="298" id="veh323" route="S2N" type="passenger" departLane="4" />
<vehicle depart="299" id="veh280" route="N2S" type="passenger" departLane="1" />
<vehicle depart="299" id="veh324" route="S2N" type="passenger" departLane="1" />
<vehicle depart="300" id="veh281" route="N2S" type="passenger" departLane="2" />
<vehicle depart="300" id="veh325" route="S2N" type="passenger" departLane="2" />
<vehicle depart="301" id="veh282" route="N2S" type="passenger" departLane="3" />
<vehicle depart="301" id="veh326" route="S2N" type="passenger" departLane="3" />
<vehicle depart="302" id="veh283" route="N2S" type="passenger" departLane="4" />
<vehicle depart="302" id="veh327" route="S2N" type="passenger" departLane="4" />
<vehicle depart="303" id="veh284" route="N2S" type="passenger" departLane="1" />
<vehicle depart="303" id="veh328" route="S2N" type="passenger" departLane="1" />
<vehicle depart="304" id="veh285" route="N2S" type="passenger" departLane="2" />
<vehicle depart="304" id="veh329" route="S2N" type="passenger" departLane="2" />
<vehicle depart="305" id="veh286" route="N2S" type="passenger" departLane="3" />
<vehicle depart="305" id="veh330" route="S2N" type="passenger" departLane="3" />
<vehicle depart="306" id="veh287" route="N2S" type="passenger" departLane="4" />
<vehicle depart="306" id="veh331" route="S2N" type="passenger" departLane="4" />
<vehicle depart="307" id="veh288" route="N2S" type="passenger" departLane="1" />
<vehicle depart="307" id="veh332" route="S2N" type="passenger" departLane="1" />
<vehicle depart="308" id="veh289" route="N2S" type="passenger" departLane="2" />
<vehicle depart="308" id="veh333" route="S2N" type="bus" departLane="2" />
<vehicle depart="309" id="veh290" route="N2S" type="passenger" departLane="3" />
<vehicle depart="310" id="veh291" route="N2S" type="passenger" departLane="4" />
<vehicle depart="311" id="veh292" route="N2S" type="passenger" departLane="1" />
<vehicle depart="312" id="veh293" route="N2S" type="passenger" departLane="2" />
<vehicle depart="313" id="veh294" route="N2S" type="passenger" departLane="3" />
<vehicle depart="314" id="veh295" route="N2S" type="passenger" departLane="4" />
<vehicle depart="315" id="veh296" route="N2S" type="passenger" departLane="1" />
<vehicle depart="316" id="veh297" route="N2S" type="passenger" departLane="2" />
<vehicle depart="317" id="veh298" route="N2S" type="passenger" departLane="3" />
<vehicle depart="332" id="veh337" route="E2N" type="passenger" departLane="2" />
<vehicle depart="332" id="veh368" route="W2N" type="passenger" departLane="1" />
<vehicle depart="332" id="veh375" route="W2S" type="passenger" departLane="4" />
<vehicle depart="332" id="veh377" route="W2E" type="passenger" departLane="2" />
<vehicle depart="332" id="veh386" route="E2N" type="passenger" departLane="3" />
<vehicle depart="333" id="veh338" route="E2N" type="passenger" departLane="3" />
<vehicle depart="333" id="veh369" route="W2N" type="passenger" departLane="2" />
<vehicle depart="333" id="veh376" route="W2S" type="passenger" departLane="1" />
<vehicle depart="333" id="veh378" route="W2E" type="passenger" departLane="3" />
<vehicle depart="333" id="veh387" route="E2N" type="passenger" departLane="4" />
<vehicle depart="334" id="veh339" route="E2N" type="passenger" departLane="4" />
<vehicle depart="334" id="veh370" route="W2N" type="passenger" departLane="3" />
<vehicle depart="334" id="veh379" route="W2E" type="passenger" departLane="4" />
<vehicle depart="334" id="veh388" route="E2N" type="passenger" departLane="1" />
<vehicle depart="335" id="veh340" route="E2N" type="passenger" departLane="1" />
<vehicle depart="335" id="veh371" route="W2N" type="passenger" departLane="4" />
<vehicle depart="335" id="veh380" route="W2E" type="passenger" departLane="1" />
<vehicle depart="335" id="veh389" route="E2N" type="passenger" departLane="2" />
<vehicle depart="336" id="veh341" route="E2N" type="passenger" departLane="2" />
<vehicle depart="336" id="veh372" route="W2N" type="passenger" departLane="1" />
<vehicle depart="336" id="veh381" route="W2E" type="passenger" departLane="2" />
<vehicle depart="336" id="veh390" route="E2N" type="passenger" departLane="3" />
<vehicle depart="337" id="veh342" route="E2N" type="passenger" departLane="3" />
<vehicle depart="337" id="veh373" route="W2N" type="passenger" departLane="2" />
<vehicle depart="337" id="veh382" route="W2E" type="passenger" departLane="3" />
<vehicle depart="337" id="veh391" route="E2N" type="passenger" departLane="4" />
<vehicle depart="338" id="veh343" route="E2N" type="bus" departLane="4" />
<vehicle depart="338" id="veh374" route="W2N" type="bus" departLane="3" />